OpenDSSCircuit/Original_Circuit/Allocated_Loads_ckt24.dss
New	load.208450100	phases=3	kV=0.48	bus1=G2100FE2600_N292234_sec_1.1.2.3	xfkVA=22	pf=0.98	status=variable	model=4 CVRwatts=0.8	CVRvars=3	conn=wye	Vminpu=0.7	duty=LS_ThreePhase		!	Phase	ABC
New	load.209450100	phases=3	kV=0.48	bus1=G2100FE2600_N292234_sec_2.1.2.3	xfkVA=9.15	pf=0.98	status=variable	model=4 CVRwatts=0.8	CVRvars=3	conn=wye	Vminpu=0.7	duty=LS_ThreePhase		!	Phase	ABC
New	load.210450100	phases=3	kV=0.48	bus1=G2100FE2600_N292234_sec_3.1.2.3	xfkVA=12.25	pf=0.98	status=variable	model=4 CVRwatts=0.8	CVRvars=3	conn=wye	Vminpu=0.7	duty=LS_ThreePhase		!	Phase	ABC
New	load.211450100	phases=3	kV=0.48	bus1=G2100FE2600_N292234_sec_4.1.2.3	xfkVA=15.04	pf=0.98	status=variable	model=4 CVRwatts=0.8	CVRvars=3	conn=wye	Vminpu=0.7	duty=LS_ThreePhase		!	Phase	ABC
New	load.212450100	phases=3	kV=0.48	bus1=G2100FE5400_N292228_sec_4.1.2.3	xfkVA=0	pf=0.98	status=variable	model=4 CVRwatts=0.8	CVRvars=3	conn=wye	Vminpu=0.7	duty=LS_ThreePhase		!	Phase	ABC
New	load.213450100	phases=3	kV=0.48	bus1=G2100FE5400_N292228_sec_3.1.2.3	xfkVA=3.86	pf=0.98	status=variable	model=4 CVRwatts=0.8	CVRvars=3	conn=wye	Vminpu=0.7	duty=LS_ThreePhase		!	Phase	ABC
New	load.216450100	phases=3	kV=0.48	bus1=G2100FE5400_N292228_sec_2.1.2.3	xfkVA=25.51	pf=0.98	status=variable	model=4 CVRwatts=0.8	CVRvars=3	conn=wye	Vminpu=0.7	duty=LS_ThreePhase		!	Phase	ABC
New	load.231019089	phases=3	kV=0.48	bus1=G2100FE5400_N292228_sec_1.1.2.3	xfkVA=17.72	pf=0.98	status=variable	model=4 CVRwatts=0.8	CVRvars=3	conn=wye	Vminpu=0.7	duty=LS_ThreePhase		!	Phase	ABC
New	load.208450101	phases=3	kV=0.48	bus1=G2100FE5400_N292228_sec_1.1.2.3	xfkVA=22	pf=0.98	status=variable	model=4 CVRwatts=0.8	CVRvars=3	conn=wye	Vminpu=0.7	duty=LS_ThreePhase		!	Phase	ABC
New	load.209450101	phases=3	kV=0.48	bus1=G2100FE5400_N292228_sec_2.1.2.3	xfkVA=9.15	pf=0.98	status=variable	model=4 CVRwatts=0.8	CVRvars=3	conn=wye	Vminpu=0.7	duty=LS_ThreePhase		!	Phase	ABC
New	load.210450112	phases=3	kV=0.48	bus1=G2100FE5400_N292228_sec_3.1.2.3	xfkVA=12.25	pf=0.98	status=variable	model=4 CVRwatts=0.8	CVRvars=3	conn=wye	Vminpu=0.7	duty=LS_ThreePhase		!	Phase	ABC
New	load.211450111	phases=3	kV=0.48	bus1=G2100FE5400_N292228_sec_4.1.2.3	xfkVA=15.04	pf=0.98	status=variable	model=4 CVRwatts=0.8	CVRvars=3	conn=wye	Vminpu=0.7	duty=LS_ThreePhase		!	Phase	ABC
New	load.212450101	phases=3	kV=0.48	bus1=G2100FE5400_N292228_sec_1.1.2.3	xfkVA=0	pf=0.98	status=variable	model=4 CVRwatts=0.8	CVRvars=3	conn=wye	Vminpu=0.7	duty=LS_ThreePhase		!	Phase	ABC
New	load.213450101	phases=3	kV=0.48	bus1=G2100FE5400_N292228_sec_2.1.2.3	xfkVA=3.86	pf=0.98	status=variable	model=4 CVRwatts=0.8	CVRvars=3	conn=wye	Vminpu=0.7	duty=LS_ThreePhase		!	Phase	ABC
New	load.216450101	phases=3	kV=0.48	bus1=G2100FE5400_N292228_sec_3.1.2.3	xfkVA=25.51	pf=0.98	status=variable	model=4 CVRwatts=0.8	CVRvars=3	conn=wye	Vminpu=0.7	duty=LS_ThreePhase		!	Phase	ABC
New	load.231019081	phases=3	kV=0.48	bus1=G2100FE5400_N292228_sec_4.1.2.3	xfkVA=17.72	pf=0.98	status=variable	model=4 CVRwatts=0.8	CVRvars=3	conn=wye	Vminpu=0.7	duty=LS_ThreePhase		!	Phase	ABC
New	load.424818078	phases=3	kV=0.48	bus1=G2100FF2000_N292242_sec_2.1.2.3	xfkVA=4.55	pf=0.98	status=variable	model=4 CVRwatts=0.8	CVRvars=3	conn=wye	Vminpu=0.7	duty=LS_ThreePhase		!	Phase	ABC
New	load.425407080	phases=3	kV=0.48	bus1=G2100FF2000_N292242_sec_3.1.2.3	xfkVA=4.88	pf=0.98	status=variable	model=4 CVRwatts=0.8	CVRvars=3	conn=wye	Vminpu=0.7	duty=LS_ThreePhase		!	Phase	ABC
New	load.541897444	phases=3	kV=0.48	bus1=G2100FF2000_N292242_sec_4.1.2.3	xfkVA=30.74	pf=0.98	status=variable	model=4 CVRwatts=0.8	CVRvars=3	conn=wye	Vminpu=0.7	duty=LS_ThreePhase		!	Phase	ABC
New	load.556796868	phases=3	kV=0.48	bus1=G2100FF2000_N292242_sec_1.1.2.3	xfkVA=10.19	pf=0.98	status=variable	model=4 CVRwatts=0.8	CVRvars=3	conn=wye	Vminpu=0.7	duty=LS_ThreePhase		!	Phase	ABC
New	load.814484200	phases=3	kV=0.48	bus1=G2100FF2000_N292242_sec_2.1.2.3	xfkVA=50.13	pf=0.98	status=variable	model=4 CVRwatts=0.8	CVRvars=3	conn=wye	Vminpu=0.7	duty=LS_ThreePhase		!	Phase	ABC
New	load.640292047	phases=3	kV=0.48	bus1=G2100FF2000_N292242_sec_1.1.2.3	xfkVA=62.73	pf=0.98	status=variable	model=4 CVRwatts=0.8	CVRvars=3	conn=wye	Vminpu=0.7	duty=LS_ThreePhase		!	Phase	ABC
New	load.923350100	phases=3	kV=0.48	bus1=G2100FF2000_N292242_sec_2.1.2.3	xfkVA=10.87	pf=0.98	status=variable	model=4 CVRwatts=0.8	CVRvars=3	conn=wye	Vminpu=0.7	duty=LS_ThreePhase		!	Phase	ABC
New	load.109614539	phases=1	kV=0.24	bus1=G2100CL7400_N283783_sec_1.1	xfkVA=4.07041594	pf=0.98	status=variable	model=4 CVRwatts=0.8	CVRvars=3	conn=wye	Vminpu=0.7	duty=LS_PhaseA		!	Phase	1
New	load.138468953	phases=1	kV=0.24	bus1=G2100CL7400_N283783_sec_2.1	xfkVA=5.62661917	pf=0.98	status=variable	model=4 CVRwatts=0.8	CVRvars=3	conn=wye	Vminpu=0.7	duty=LS_PhaseA		!	Phase	1
New	load.313055646	phases=1	kV=0.24	bus1=G2100CL7400_N283783_sec_3.1	xfkVA=2.74359527	pf=0.98	status=variable	model=4 CVRwatts=0.8	CVRvars=3	conn=wye	Vminpu=0.7	duty=LS_PhaseA		!	Phase	1
New	load.318979782	phases=1	kV=0.24	bus1=G2100CL9700_N283793_sec_1.1	xfkVA=3.03594559	pf=0.98	status=variable	model=4 CVRwatts=0.8	CVRvars=3	conn=wye	Vminpu=0.7	duty=LS_PhaseA		!	Phase	1
New	load.438429982	phases=1	kV=0.24	bus1=G2100CL9700_N283793_sec_2.1	xfkVA=3.1056599	pf=0.98	status=variable	model=4 CVRwatts=0.8	CVRvars=3	conn=wye	Vminpu=0.7	duty=LS_PhaseA		!	Phase	1
New	load.527508382	phases=1	kV=0.24	bus1=G2100CL9700_N283793_sec_3.1	xfkVA=2.39052605	pf=0.98	status=variable	model=4 CVRwatts=0.8	CVRvars=3	conn=wye	Vminpu=0.7	duty=LS_PhaseA		!	Phase	1
New	load.589583049	phases=1	kV=0.24	bus1=G2100CM0100_N283805_sec_1.1	xfkVA=2.92125431	pf=0.98	status=variable	model=4 CVRwatts=0.8	CVRvars=3	conn=wye	Vminpu=0.7	duty=LS_PhaseA		!	Phase	1
New	load.665149786	phases=1	kV=0.24	bus1=G2100CM0100_N283805_sec_2.1	xfkVA=4.10864637	pf=0.98	status=variable	model=4 CVRwatts=0.8	CVRvars=3	conn=wye	Vminpu=0.7	duty=LS_PhaseA		!	Phase	1
New	load.679416869	phases=1	kV=0.24	bus1=G2100CM0100_N283805_sec_3.1	xfkVA=2.95273819	pf=0.98	status=variable	model=4 CVRwatts=0.8	CVRvars=3	conn=wye	Vminpu=0.7	duty=LS_PhaseA		!	P
New	load.113450100	phases=1	kV=0.24	bus1=G2100EO1300_N292510_sec_1.3	xfkVA=5.39723661	pf=0.98	status=variable	model=4 CVRwatts=0.8	CVRvars=3	conn=wye	Vminpu=0.7	duty=LS_PhaseC		!	Phase	3
New	load.171450100	phases=1	kV=0.24	bus1=G2100EO1300_N292510_sec_2.3	xfkVA=2.45328937	pf=0.98	status=variable	model=4 CVRwatts=0.8	CVRvars=3	conn=wye	Vminpu=0.7	duty=LS_PhaseC		!	Phase	3
New	load.206350100	phases=1	kV=0.24	bus1=G2100EO1300_N292510_sec_1.3	xfkVA=4.37176165	pf=0.98	status=variable	model=4 CVRwatts=0.8	CVRvars=3	conn=wye	Vminpu=0.7	duty=LS_PhaseC		!	Phase	3
New	load.207350100	phases=1	kV=0.24	bus1=G2100EO2100_N292498_sec_1.3	xfkVA=2.92125431	pf=0.98	status=variable	model=4 CVRwatts=0.8	CVRvars=3	conn=wye	Vminpu=0.7	duty=LS_PhaseC		!	Phase	3
New	load.208350100	phases=1	kV=0.24	bus1=G2100EO2100_N292498_sec_2.3	xfkVA=0.25636873	pf=0.98	status=variable	model=4 CVRwatts=0.8	CVRvars=3	conn=wye	Vminpu=0.7	duty=LS_PhaseC		!	Phase	3
New	load.209350100	phases=1	kV=0.24	bus1=G2100EO2100_N292498_sec_3.3	xfkVA=6.2855318	pf=0.98	status=variable	model=4 CVRwatts=0.8	CVRvars=3	conn=wye	Vminpu=0.7	duty=LS_PhaseC		!	Phase	3
New	load.189720633	phases=1	kV=0.24	bus1=G2100EO2100_N292498_sec_1.3	xfkVA=6.28560935	pf=0.98	status=variable	model=4 CVRwatts=0.8	CVRvars=3	conn=wye	Vminpu=0.7	duty=LS_PhaseC		!	Phase	3
New	load.183350100	phases=1	kV=0.24	bus1=G2100EO2100_N292498_sec_1.3	xfkVA=3.28781663	pf=0.98	status=variable	model=4 CVRwatts=0.8	CVRvars=3	conn=wye	Vminpu=0.7	duty=LS_PhaseC		!	Phase	3
New	load.184350100	phases=1	kV=0.24	bus1=G2100EO2100_N292498_sec_2.3	xfkVA=4.30654504	pf=0.98	status=variable	model=4 CVRwatts=0.8	CVRvars=3	conn=wye	Vminpu=0.7	duty=LS_PhaseC		!	Phase	3
New	load.10350100	phases=1	kV=0.24	bus1=G2100EO2100_N292498_sec_3.3	xfkVA=4.1978507	pf=0.98	status=variable	model=4 CVRwatts=0.8	CVRvars=3	conn=wye	Vminpu=0.7	duty=LS_PhaseC		!	Phase	3
New	load.160450100	phases=1	kV=0.24	bus1=G2100EN8600_N292479_sec_1.3	xfkVA=2.81106073	pf=0.98	status=variable	model=4 CVRwatts=0.8	CVRvars=3	conn=wye	Vminpu=0.7	duty=LS_PhaseC		!	Phase	3
New	load.190450100	phases=1	kV=0.24	bus1=G2100EN8600_N292479_sec_2.3	xfkVA=7.20081318	pf=0.98	status=variable	model=4 CVRwatts=0.8	CVRvars=3	conn=wye	Vminpu=0.7	duty=LS_PhaseC		!	Phase	3
New	load.255450100	phases=1	kV=0.24	bus1=G2100EN8600_N292479_sec_3.3	xfkVA=2.5367012	pf=0.98	status=variable	model=4 CVRwatts=0.8	CVRvars=3	conn=wye	Vminpu=0.7	duty=LS_PhaseC		!	Phase	3
New	load.637202100	phases=1	kV=0.24	bus1=G2100EN8600_N292479_sec_1.3	xfkVA=3.33054476	pf=0.98	status=variable	model=4 CVRwatts=0.8	CVRvars=3	conn=wye	Vminpu=0.7	duty=LS_PhaseC		!	Phase	3
New	load.954350100	phases=1	kV=0.24	bus1=G2100EN8600_N292479_sec_2.3	xfkVA=3.42724525	pf=0.98	status=variable	model=4 CVRwatts=0.8	CVRvars=3	conn=wye	Vminpu=0.7	duty=LS_PhaseC		!	Phase	3
New	load.96450100	phases=1	kV=0.24	bus1=G2100EN8600_N292479_sec_3.3	xfkVA=3.45198258	pf=0.98	status=variable	model=4 CVRwatts=0.8	CVRvars=3	conn=wye	Vminpu=0.7	duty=LS_PhaseC		!	Phase	3
New	load.135350100	phases=1	kV=0.24	bus1=G2100CJ3400_N283737_sec_1.2	xfkVA=2.7818257	pf=0.98	status=variable	model=4 CVRwatts=0.8	CVRvars=3	conn=wye	Vminpu=0.7	duty=LS_PhaseB		!	Phase	2
New	load.136350100	phases=1	kV=0.24	bus1=G2100CJ3400_N283737_sec_2.2	xfkVA=3.50820379	pf=0.98	status=variable	model=4 CVRwatts=0.8	CVRvars=3	conn=wye	Vminpu=0.7	duty=LS_PhaseB		!	Phase	2
New	load.137350100	phases=1	kV=0.24	bus1=G2100CJ3400_N283737_sec_3.2	xfkVA=6.06739349	pf=0.98	status=variable	model=4 CVRwatts=0.8	CVRvars=3	conn=wye	Vminpu=0.7	duty=LS_PhaseB		!	Phase	2
New	load.138350100	phases=1	kV=0.24	bus1=G2100CK4000_N283780_sec_1.2	xfkVA=3.45872913	pf=0.98	status=variable	model=4 CVRwatts=0.8	CVRvars=3	conn=wye	Vminpu=0.7	duty=LS_PhaseB		!	Phase	2
New	load.139350100	phases=1	kV=0.24	bus1=G2100CK4000_N283780_sec_2.2	xfkVA=6.49242587	pf=0.98	status=variable	model=4 CVRwatts=0.8	CVRvars=3	conn=wye	Vminpu=0.7	duty=LS_PhaseB		!	Phase	2
New	load.140350100	phases=1	kV=0.24	bus1=G2100CK4000_N283780_sec_3.2	xfkVA=5.38149467	pf=0.98	status=variable	model=4 CVRwatts=0.8	CVRvars=3	conn=wye	Vminpu=0.7	duty=LS_PhaseB		!	Phase	2
New	load.141350100	phases=1	kV=0.24	bus1=G2100CK4100_N283759_sec_1.2	xfkVA=8.32523747	pf=0.98	status=variable	model=4 CVRwatts=0.8	CVRvars=3	conn=wye	Vminpu=0.7	duty=LS_PhaseB		!	Phase	2
New	load.118350100	phases=1	kV=0.24	bus1=G2100CK4100_N283759_sec_2.2	xfkVA=3.1056599	pf=0.98	status=variable	model=4 CVRwatts=0.8	CVRvars=3	conn=wye	Vminpu=0.7	duty=LS_PhaseB		!	Phase	2
New	load.133350100	phases=1	kV=0.24	bus1=G2100CK4100_N283759_sec_3.2	xfkVA=4.6101396	pf=0.98	status=variable	model=4 CVRwatts=0.8	CVRvars=3	conn=wye	Vminpu=0.7	duty=LS_PhaseB		!	Phase	2
New	load.134350100	phases=1	kV=0.24	bus1=G2100AI4900_N283724_sec_1.2	xfkVA=1.65290371	pf=0.98	status=variable	model=4 CVRwatts=0.8	CVRvars=3	conn=wye	Vminpu=0.7	duty=LS_PhaseB		!	Phase	2
New	load.142350100	phases=1	kV=0.24	bus1=G2100AI4900_N283724_sec_2.2	xfkVA=5.43996473	pf=0.98	status=variable	model=4 CVRwatts=0.8	CVRvars=3	conn=wye	Vminpu=0.7	duty=LS_PhaseB		!	Phase	2
New	load.143350100	phases=1	kV=0.24	bus1=G2100AI4900_N283724_sec_3.2	xfkVA=5.24656375	pf=0.98	status=variable	model=4 CVRwatts=0.8	CVRvars=3	conn=wye	Vminpu=0.7	duty=LS_PhaseB		!	Phase	2
New	load.144350100	phases=1	kV=0.24	bus1=G2100AK1200_N283742_sec_1.2	xfkVA=3.46097797	pf=0.98	status=variable	model=4 CVRwatts=0.8	CVRvars=3	conn=wye	Vminpu=0.7	duty=LS_PhaseB		!	Phase	2
New	load.575350100	phases=1	kV=0.24	bus1=G2100AK1200_N283742_sec_2.2	xfkVA=5.4849417	pf=0.98	status=variable	model=4 CVRwatts=0.8	CVRvars=3	conn=wye	Vminpu=0.7	duty=LS_PhaseB		!	Phase	2
New	load.576350100	phases=1	kV=0.24	bus1=G2100AK1200_N283742_sec_3.2	xfkVA=5.33426885	pf=0.98	status=variable	model=4 CVRwatts=0.8	CVRvars=3	conn=wye	Vminpu=0.7	duty=LS_PhaseB		!	Phase	2
New	load.307998000	phases=1	kV=0.24	bus1=G2100AK1200_N283742_sec_1.2	xfkVA=5.16695451	pf=0.98	status=variable	model=4 CVRwatts=0.8	CVRvars=3	conn=wye	Vminpu=0.7	duty=LS_PhaseB		!	Phase	3
New	load.324998000	phases=1	kV=0.24	bus1=G2100AK1200_N283742_sec_2.2	xfkVA=3.48541546	pf=0.98	status=variable	model=4 CVRwatts=0.8	CVRvars=3	conn=wye	Vminpu=0.7	duty=LS_PhaseB		!	Phase	3
New	load.326998000	phases=1	kV=0.24	bus1=G2100AK1200_N283742_sec_3.2	xfkVA=6.16724237	pf=0.98	status=variable	model=4 CVRwatts=0.8	CVRvars=3	conn=wye	Vminpu=0.7	duty=LS_PhaseB		!	Phase	3
New	load.329998000	phases=1	kV=0.24	bus1=G2100AK1200_N283742_sec_1.2	xfkVA=2.13904274	pf=0.98	status=variable	model=4 CVRwatts=0.8	CVRvars=3	conn=wye	Vminpu=0.7	duty=LS_PhaseB		!	Phase	3
New	load.331998000	phases=1	kV=0.24	bus1=G2100AK1200_N283742_sec_2.2	xfkVA=5.12427292	pf=0.98	status=variable	model=4 CVRwatts=0.8	CVRvars=3	conn=wye	Vminpu=0.7	duty=LS_PhaseB		!	Phase	3
New	load.374998000	phases=1	kV=0.24	bus1=G2100AK1200_N283742_sec_3.2	xfkVA=5.49897762	pf=0.98	status=variable	model=4 CVRwatts=0.8	CVRvars=3	conn=wye	Vminpu=0.7	duty=LS_PhaseB		!	Phase	3
New	load.577350100	phases=1	kV=0.24	bus1=G2100AK4600_N283751_sec_1.2	xfkVA=4.3785082	pf=0.98	status=variable	model=4 CVRwatts=0.8	CVRvars=3	conn=wye	Vminpu=0.7	duty=LS_PhaseB		!	Phase	2
New	load.578350100	phases=1	kV=0.24	bus1=G2100AK4600_N283751_sec_2.2	xfkVA=8.2105462	pf=0.98	status=variable	model=4 CVRwatts=0.8	CVRvars=3	conn=wye	Vminpu=0.7	duty=LS_PhaseB		!	Phase	2
New	load.579350100	phases=1	kV=0.24	bus1=G2100AK4600_N283751_sec_3.2	xfkVA=2.41751223	pf=0.98	status=variable	model=4 CVRwatts=0.8	CVRvars=3	conn=wye	Vminpu=0.7	duty=LS_PhaseB		!	Phase	2
New	load.578350110	phases=1	kV=0.24	bus1=G2100ML7400_N300497_sec_2.3	xfkVA=8.2105462	pf=0.98	status=variable	model=4 CVRwatts=0.8	CVRvars=3	conn=wye	Vminpu=0.7	duty=LS_PhaseC		!	Phase	2
New	load.579350111	phases=1	kV=0.24	bus1=G2100ML7400_N300497_sec_3.3	xfkVA=2.41751223	pf=0.98	status=variable	model=4 CVRwatts=0.8	CVRvars=3	conn=wye	Vminpu=0.7	duty=LS_PhaseC		!	Phase	2
New	load.234350100	phases=1	kV=0.24	bus1=G2100EO1300_N292510_sec_3.3	xfkVA=3.2585816	pf=0.98	status=variable	model=4 CVRwatts=0.8	CVRvars=3	conn=wye	Vminpu=0.7	duty=LS_PhaseC		!	Phase	1
New	load.235350100	phases=1	kV=0.24	bus1=G2100EO1300_N292510_sec_3.3	xfkVA=5.3365177	pf=0.98	status=variable	model=4 CVRwatts=0.8	CVRvars=3	conn=wye	Vminpu=0.7	duty=LS_PhaseC		!	Phase	1
New	load.246350100	phases=1	kV=0.24	bus1=G2100EO1300_N292510_sec_3.3	xfkVA=2.76158606	pf=0.98	status=variable	model=4 CVRwatts=0.8	CVRvars=3	conn=wye	Vminpu=0.7	duty=LS_PhaseC		!	Phase	1
New	load.236350100	phases=1	kV=0.24	bus1=G2100EO1300_N292510_sec_3.3	xfkVA=3.51719919	pf=0.98	status=variable	model=4 CVRwatts=0.8	CVRvars=3	conn=wye	Vminpu=0.7	duty=LS_PhaseC		!	Phase	1
New	load.237350100	phases=1	kV=0.24	bus1=G2100EO1300_N292510_sec_2.3	xfkVA=3.39801021	pf=0.98	status=variable	model=4 CVRwatts=0.8	CVRvars=3	conn=wye	Vminpu=0.7	duty=LS_PhaseC		!	Phase	1
New	load.245350100	phases=1	kV=0.24	bus1=G2100EO1300_N292510_sec_2.3	xfkVA=5.0958909	pf=0.98	status=variable	model=4 CVRwatts=0.8	CVRvars=3	conn=wye	Vminpu=0.7	duty=LS_PhaseC		!	Phase	1
New	load.781998000	phases=1	kV=0.24	bus1=G2100EO1300_N292510_sec_1.3	xfkVA=6.62557322	pf=0.98	status=variable	model=4 CVRwatts=0.8	CVRvars=3	conn=wye	Vminpu=0.7	duty=LS_PhaseC		!	Phase	2
New	load.857998000	phases=1	kV=0.24	bus1=G2100EO1300_N292510_sec_1.3	xfkVA=2.79114236	pf=0.98	status=variable	model=4 CVRwatts=0.8	CVRvars=3	conn=wye	Vminpu=0.7	duty=LS_PhaseC		!	Phase	2
New	load.642202100	phases=1	kV=0.24	bus1=G2100ML7400_N300497_sec_2.3	xfkVA=1.33895082	pf=0.98	status=variable	model=4 CVRwatts=0.8	CVRvars=3	conn=wye	Vminpu=0.7	duty=LS_PhaseC		!	Phase	3
New	load.745202100	phases=1	kV=0.24	bus1=G2100ML7400_N300497_sec_2.3	xfkVA=3.01570595	pf=0.98	status=variable	model=4 CVRwatts=0.8	CVRvars=3	conn=wye	Vminpu=0.7	duty=LS_PhaseC		!	Phase	3
New	load.240450100	phases=1	kV=0.24	bus1=G2100ML7400_N300497_sec_3.3	xfkVA=4.21883995	pf=0.98	status=variable	model=4 CVRwatts=0.8	CVRvars=3	conn=wye	Vminpu=0.7	duty=LS_PhaseC		!	Phase	3
New	load.505202100	phases=1	kV=0.24	bus1=G2100ML7400_N300497_sec_3.3	xfkVA=1.96099597	pf=0.98	status=variable	model=4 CVRwatts=0.8	CVRvars=3	conn=wye	Vminpu=0.7	duty=LS_PhaseC		!	Phase	3
New	load.643202100	phases=1	kV=0.24	bus1=G2100ML7400_N300497_sec_1.3	xfkVA=5.19708909	pf=0.98	status=variable	model=4 CVRwatts=0.8	CVRvars=3	conn=wye	Vminpu=0.7	duty=LS_PhaseC		!	Phase	3
New	load.637202101	phases=1	kV=0.24	bus1=G2100ML7400_N300497_sec_1.3	xfkVA=3.33054476	pf=0.98	status=variable	model=4 CVRwatts=0.8	CVRvars=3	conn=wye	Vminpu=0.7	duty=LS_PhaseC		!	Phase	3
New	load.459328650	phases=1	kV=0.24	bus1=G2100ML7400_N300497_sec_1.3	xfkVA=6.74964762	pf=0.98	status=variable	model=4 CVRwatts=0.8	CVRvars=3	conn=wye	Vminpu=0.7	duty=LS_PhaseC		!	Phase	2
New	load.843998000	phases=1	kV=0.24	bus1=G2100MK7800_N300492_sec.3		xfkVA=5.37490322	pf=0.98	status=variable	model=4 CVRwatts=0.8	CVRvars=3	conn=wye	Vminpu=0.7	duty=LS_PhaseC		!	Phase	3
New	load.844998000	phases=1	kV=0.24	bus1=G2100MK7800_N300492_sec.3		xfkVA=4.49397494	pf=0.98	status=variable	model=4 CVRwatts=0.8	CVRvars=3	conn=wye	Vminpu=0.7	duty=LS_PhaseC		!	Phase	3
